bench/ieee57_with_7_terminal_vsc_without_current_control.raw
 0,    100.00, 33, 0, 0, 60.00       / October 02, 2013 13:50:05
 08/25/93 UW ARCHIVE           100.0  1961 W IEEE 57 Bus Test Case

1,'Kanawha     ', 138.0000,3,   1,   1,   1,1.04000,   0.0000
2,'Turner      ', 138.0000,2,   1,   1,   1,1.01000,  -1.1882
3,'Logan       ', 138.0000,2,   1,   1,   1,0.98500,  -5.9881
4,'Sprigg      ', 138.0000,1,   1,   1,   1,0.98078,  -7.3374
5,'Bus 5       ', 138.0000,1,   1,   1,   1,0.97650,  -8.5464
6,'Beaver C    ', 138.0000,2,   1,   1,   1,0.98000,  -8.6741
7,'Bus 7       ', 138.0000,1,   1,   1,   1,0.98420,  -7.6014
8,'Clinch R    ', 138.0000,2,   1,   1,   1,1.00500,  -4.4779
9,'Saltvill    ', 138.0000,2,   1,   1,   1,0.98000,  -9.5847
10,'Bus 10      ', 138.0000,1,   1,   1,   1,0.98624, -11.4497
11,'Tazewell    ', 138.0000,1,   1,   1,   1,0.97396, -10.1932
12,'Glen Lyn    ', 138.0000,2,   1,   1,   1,1.01500, -10.4712
13,'Bus 13      ', 138.0000,1,   1,   1,   1,0.97889,  -9.8035
14,'Bus 14      ', 138.0000,1,   1,   1,   1,0.97018,  -9.3503
15,'Bus 15      ', 138.0000,1,   1,   1,   1,0.98803,  -7.1902
16,'Bus 16      ', 138.0000,1,   1,   1,   1,1.01337,  -8.8589
17,'Bus 17      ', 138.0000,1,   1,   1,   1,1.01745,  -5.3959
18,'Sprigg      ', 138.0000,1,   1,   1,   1,1.00066, -11.7296
19,'Bus 19      ', 138.0000,1,   1,   1,   1,0.97016, -13.2265
20,'Bus 20      ', 138.0000,1,   1,   1,   1,0.96379, -13.4443
21,'Bus 21      ', 138.0000,1,   1,   1,   1,1.00850, -12.9290
22,'Bus 22      ', 138.0000,1,   1,   1,   1,1.00974, -12.8743
23,'Bus 23      ', 138.0000,1,   1,   1,   1,1.00833, -12.9396
24,'Bus 24      ', 138.0000,1,   1,   1,   1,0.99923, -13.2921
25,'Bus 25      ', 138.0000,1,   1,   1,   1,0.98252, -18.1732
26,'Bus 26      ', 138.0000,1,   1,   1,   1,0.95882, -12.9813
27,'Bus 27      ', 138.0000,1,   1,   1,   1,0.98154, -11.5136
28,'Bus 28      ', 138.0000,1,   1,   1,   1,0.99668, -10.4816
29,'Bus 29      ', 138.0000,1,   1,   1,   1,1.01022,  -9.7718
30,'Bus 30      ', 138.0000,1,   1,   1,   1,0.96266, -18.7196
31,'Bus 31      ', 138.0000,1,   1,   1,   1,0.93593, -19.3838
32,'Bus 32      ', 138.0000,1,   1,   1,   1,0.94987, -18.5123
33,'Bus 33      ', 138.0000,1,   1,   1,   1,0.94758, -18.5520
34,'Bus 34      ', 138.0000,1,   1,   1,   1,0.95920, -14.1490
35,'Bus 35      ', 138.0000,1,   1,   1,   1,0.96621, -13.9062
36,'Bus 36      ', 138.0000,1,   1,   1,   1,0.97583, -13.6348
37,'Bus 37      ', 138.0000,1,   1,   1,   1,0.98489, -13.4459
38,'Bus 38      ', 138.0000,1,   1,   1,   1,1.01281, -12.7346
39,'Bus 39      ', 138.0000,1,   1,   1,   1,0.98282, -13.4910
40,'Bus 40      ', 138.0000,1,   1,   1,   1,0.97281, -13.6582
41,'Tazewell    ', 138.0000,1,   1,   1,   1,0.99622, -14.0767
42,'Bus 42      ', 138.0000,1,   1,   1,   1,0.96653, -15.5328
43,'Tazewell    ', 138.0000,1,   1,   1,   1,1.00956, -11.3544
44,'Bus 44      ', 138.0000,1,   1,   1,   1,1.01680, -11.8565
45,'Bus 45      ', 138.0000,1,   1,   1,   1,1.03600,  -9.2701
46,'Bus 46      ', 138.0000,1,   1,   1,   1,1.05980, -11.1161
47,'Bus 47      ', 138.0000,1,   1,   1,   1,1.03325, -12.5116
48,'Bus 48      ', 138.0000,1,   1,   1,   1,1.02735, -12.6107
49,'Bus 49      ', 138.0000,1,   1,   1,   1,1.03625, -12.9361
50,'Bus 50      ', 138.0000,1,   1,   1,   1,1.02334, -13.4127
51,'Bus 51      ', 138.0000,1,   1,   1,   1,1.05226, -12.5334
52,'Bus 52      ', 138.0000,1,   1,   1,   1,0.98037, -11.4976
53,'Bus 53      ', 138.0000,1,   1,   1,   1,0.97095, -12.2526
54,'Bus 54      ', 138.0000,1,   1,   1,   1,0.99632, -11.7097
55,'Saltvill    ', 138.0000,1,   1,   1,   1,1.03079, -10.8011
56,'Bus 56      ', 138.0000,1,   1,   1,   1,0.96837, -16.0651
57,'Bus 57      ', 138.0000,1,   1,   1,   1,0.96483, -16.5837
0 / END OF BUS DATA, BEGIN LOAD DATA
1,'1 ',1,   1,   1,    55.000,    17.000,     0.000,     0.000,     0.000,    -0.000,   1,1
2,'1 ',1,   1,   1,     3.000,    88.000,     0.000,     0.000,     0.000,    -0.000,   1,1
3,'1 ',1,   1,   1,    41.000,    21.000,     0.000,     0.000,     0.000,    -0.000,   1,1
5,'1 ',1,   1,   1,    13.000,     4.000,     0.000,     0.000,     0.000,    -0.000,   1,1
6,'1 ',1,   1,   1,    75.000,     2.000,     0.000,     0.000,     0.000,    -0.000,   1,1
8,'1 ',1,   1,   1,   150.000,    22.000,     0.000,     0.000,     0.000,    -0.000,   1,1
9,'1 ',1,   1,   1,   121.000,    26.000,     0.000,     0.000,     0.000,    -0.000,   1,1
10,'1 ',1,   1,   1,     5.000,     2.000,     0.000,     0.000,     0.000,    -0.000,   1,1
12,'1 ',1,   1,   1,   377.000,    24.000,     0.000,     0.000,     0.000,    -0.000,   1,1
13,'1 ',1,   1,   1,    18.000,     2.300,     0.000,     0.000,     0.000,    -0.000,   1,1
14,'1 ',1,   1,   1,    10.500,     5.300,     0.000,     0.000,     0.000,    -0.000,   1,1
15,'1 ',1,   1,   1,    22.000,     5.000,     0.000,     0.000,     0.000,    -0.000,   1,1
16,'1 ',1,   1,   1,    43.000,     3.000,     0.000,     0.000,     0.000,    -0.000,   1,1
17,'1 ',1,   1,   1,    42.000,     8.000,     0.000,     0.000,     0.000,    -0.000,   1,1
18,'1 ',1,   1,   1,    27.200,     9.800,     0.000,     0.000,     0.000,    -0.000,   1,1
19,'1 ',1,   1,   1,     3.300,     0.600,     0.000,     0.000,     0.000,    -0.000,   1,1
20,'1 ',1,   1,   1,     2.300,     1.000,     0.000,     0.000,     0.000,    -0.000,   1,1
23,'1 ',1,   1,   1,     6.300,     2.100,     0.000,     0.000,     0.000,    -0.000,   1,1
25,'1 ',1,   1,   1,     6.300,     3.200,     0.000,     0.000,     0.000,    -0.000,   1,1
27,'1 ',1,   1,   1,     9.300,     0.500,     0.000,     0.000,     0.000,    -0.000,   1,1
28,'1 ',1,   1,   1,     4.600,     2.300,     0.000,     0.000,     0.000,    -0.000,   1,1
29,'1 ',1,   1,   1,    17.000,     2.600,     0.000,     0.000,     0.000,    -0.000,   1,1
30,'1 ',1,   1,   1,     3.600,     1.800,     0.000,     0.000,     0.000,    -0.000,   1,1
31,'1 ',1,   1,   1,     5.800,     2.900,     0.000,     0.000,     0.000,    -0.000,   1,1
32,'1 ',1,   1,   1,     1.600,     0.800,     0.000,     0.000,     0.000,    -0.000,   1,1
33,'1 ',1,   1,   1,     3.800,     1.900,     0.000,     0.000,     0.000,    -0.000,   1,1
35,'1 ',1,   1,   1,     6.000,     3.000,     0.000,     0.000,     0.000,    -0.000,   1,1
38,'1 ',1,   1,   1,    14.000,     7.000,     0.000,     0.000,     0.000,    -0.000,   1,1
41,'1 ',1,   1,   1,     6.300,     3.000,     0.000,     0.000,     0.000,    -0.000,   1,1
42,'1 ',1,   1,   1,     7.100,     4.400,     0.000,     0.000,     0.000,    -0.000,   1,1
43,'1 ',1,   1,   1,     2.000,     1.000,     0.000,     0.000,     0.000,    -0.000,   1,1
44,'1 ',1,   1,   1,    12.000,     1.800,     0.000,     0.000,     0.000,    -0.000,   1,1
47,'1 ',1,   1,   1,    29.700,    11.600,     0.000,     0.000,     0.000,    -0.000,   1,1
49,'1 ',1,   1,   1,    18.000,     8.500,     0.000,     0.000,     0.000,    -0.000,   1,1
50,'1 ',1,   1,   1,    21.000,    10.500,     0.000,     0.000,     0.000,    -0.000,   1,1
51,'1 ',1,   1,   1,    18.000,     5.300,     0.000,     0.000,     0.000,    -0.000,   1,1
52,'1 ',1,   1,   1,     4.900,     2.200,     0.000,     0.000,     0.000,    -0.000,   1,1
53,'1 ',1,   1,   1,    20.000,    10.000,     0.000,     0.000,     0.000,    -0.000,   1,1
54,'1 ',1,   1,   1,     4.100,     1.400,     0.000,     0.000,     0.000,    -0.000,   1,1
55,'1 ',1,   1,   1,     6.800,     3.400,     0.000,     0.000,     0.000,    -0.000,   1,1
56,'1 ',1,   1,   1,     7.600,     2.200,     0.000,     0.000,     0.000,    -0.000,   1,1
57,'1 ',1,   1,   1,     6.700,     2.000,     0.000,     0.000,     0.000,    -0.000,   1,1
0 / END OF LOAD DATA, BEGIN FIXED SHUNT DATA
18,' 1', 1,     0.000,    10.000
25,' 1', 1,     0.000,     5.900
53,' 1', 1,     0.000,     6.300
0 / END OF FIXED SHUNT DATA, BEGIN GENERATOR DATA
1,'1 ',   478.664,   128.849,   999.000,  -999.000,1.04000,    0,   100.000,   0.00000,   1.00000,   0.00000,   0.00000,1.00000,1,  100.0, 10000.000,-10000.000,   1,1.0000,   0,1.0000,   0,1.0000,   0,1.0000,0, 1.0000
2,'1 ',     0.000,    -0.755,    50.000,   -17.000,1.01000,    0,   100.000,   0.00000,   1.00000,   0.00000,   0.00000,1.00000,1,  100.0, 10000.000,-10000.000,   1,1.0000,   0,1.0000,   0,1.0000,   0,1.0000,0, 1.0000
3,'1 ',    40.000,    -0.905,    60.000,   -10.000,0.98500,    0,   100.000,   0.00000,   1.00000,   0.00000,   0.00000,1.00000,1,  100.0, 10000.000,-10000.000,   1,1.0000,   0,1.0000,   0,1.0000,   0,1.0000,0, 1.0000
6,'1 ',     0.000,     0.871,    25.000,    -8.000,0.98000,    0,   100.000,   0.00000,   1.00000,   0.00000,   0.00000,1.00000,1,  100.0, 10000.000,-10000.000,   1,1.0000,   0,1.0000,   0,1.0000,   0,1.0000,0, 1.0000
8,'1 ',   450.000,    62.100,   200.000,  -140.000,1.00500,    0,   100.000,   0.00000,   1.00000,   0.00000,   0.00000,1.00000,1,  100.0, 10000.000,-10000.000,   1,1.0000,   0,1.0000,   0,1.0000,   0,1.0000,0, 1.0000
9,'1 ',     0.000,     2.288,     9.000,    -3.000,0.98000,    0,   100.000,   0.00000,   1.00000,   0.00000,   0.00000,1.00000,1,  100.0, 10000.000,-10000.000,   1,1.0000,   0,1.0000,   0,1.0000,   0,1.0000,0, 1.0000
12,'1 ',   310.000,   128.631,   155.000,  -150.000,1.01500,    0,   100.000,   0.00000,   1.00000,   0.00000,   0.00000,1.00000,1,  100.0, 10000.000,-10000.000,   1,1.0000,   0,1.0000,   0,1.0000,   0,1.0000,0, 1.0000
0 / END OF GENERATOR DATA, BEGIN BRANCH DATA
1,     2,'1 ', 0.00830, 0.02800,0.12900,   0.00,   0.00,   0.00,  0.00000,  0.00000,  0.00000,  0.00000,1,1,   0.0,   1,1.0000,   0,1.0000,   0,1.0000,   0,1.0000
1,    15,'1 ', 0.01780, 0.09100,0.09880,   0.00,   0.00,   0.00,  0.00000,  0.00000,  0.00000,  0.00000,1,1,   0.0,   1,1.0000,   0,1.0000,   0,1.0000,   0,1.0000
1,    16,'1 ', 0.04540, 0.20600,0.05460,   0.00,   0.00,   0.00,  0.00000,  0.00000,  0.00000,  0.00000,1,1,   0.0,   1,1.0000,   0,1.0000,   0,1.0000,   0,1.0000
1,    17,'1 ', 0.02380, 0.10800,0.02860,   0.00,   0.00,   0.00,  0.00000,  0.00000,  0.00000,  0.00000,1,1,   0.0,   1,1.0000,   0,1.0000,   0,1.0000,   0,1.0000
2,     3,'1 ', 0.02980, 0.08500,0.08180,   0.00,   0.00,   0.00,  0.00000,  0.00000,  0.00000,  0.00000,1,1,   0.0,   1,1.0000,   0,1.0000,   0,1.0000,   0,1.0000
3,     4,'1 ', 0.01120, 0.03660,0.03800,   0.00,   0.00,   0.00,  0.00000,  0.00000,  0.00000,  0.00000,1,1,   0.0,   1,1.0000,   0,1.0000,   0,1.0000,   0,1.0000
3,    15,'1 ', 0.01620, 0.05300,0.05440,   0.00,   0.00,   0.00,  0.00000,  0.00000,  0.00000,  0.00000,1,1,   0.0,   1,1.0000,   0,1.0000,   0,1.0000,   0,1.0000
4,     5,'1 ', 0.06250, 0.13200,0.02580,   0.00,   0.00,   0.00,  0.00000,  0.00000,  0.00000,  0.00000,1,1,   0.0,   1,1.0000,   0,1.0000,   0,1.0000,   0,1.0000
4,     6,'1 ', 0.04300, 0.14800,0.03480,   0.00,   0.00,   0.00,  0.00000,  0.00000,  0.00000,  0.00000,1,1,   0.0,   1,1.0000,   0,1.0000,   0,1.0000,   0,1.0000
5,     6,'1 ', 0.03020, 0.06410,0.01240,   0.00,   0.00,   0.00,  0.00000,  0.00000,  0.00000,  0.00000,1,1,   0.0,   1,1.0000,   0,1.0000,   0,1.0000,   0,1.0000
6,     7,'1 ', 0.02000, 0.10200,0.02760,   0.00,   0.00,   0.00,  0.00000,  0.00000,  0.00000,  0.00000,1,1,   0.0,   1,1.0000,   0,1.0000,   0,1.0000,   0,1.0000
6,     8,'1 ', 0.03390, 0.17300,0.04700,   0.00,   0.00,   0.00,  0.00000,  0.00000,  0.00000,  0.00000,1,1,   0.0,   1,1.0000,   0,1.0000,   0,1.0000,   0,1.0000
7,     8,'1 ', 0.01390, 0.07120,0.01940,   0.00,   0.00,   0.00,  0.00000,  0.00000,  0.00000,  0.00000,1,1,   0.0,   1,1.0000,   0,1.0000,   0,1.0000,   0,1.0000
8,     9,'1 ', 0.00990, 0.05050,0.05480,   0.00,   0.00,   0.00,  0.00000,  0.00000,  0.00000,  0.00000,1,1,   0.0,   1,1.0000,   0,1.0000,   0,1.0000,   0,1.0000
9,    10,'1 ', 0.03690, 0.16790,0.04400,   0.00,   0.00,   0.00,  0.00000,  0.00000,  0.00000,  0.00000,1,1,   0.0,   1,1.0000,   0,1.0000,   0,1.0000,   0,1.0000
9,    11,'1 ', 0.02580, 0.08480,0.02180,   0.00,   0.00,   0.00,  0.00000,  0.00000,  0.00000,  0.00000,1,1,   0.0,   1,1.0000,   0,1.0000,   0,1.0000,   0,1.0000
9,    12,'1 ', 0.06480, 0.29500,0.07720,   0.00,   0.00,   0.00,  0.00000,  0.00000,  0.00000,  0.00000,1,1,   0.0,   1,1.0000,   0,1.0000,   0,1.0000,   0,1.0000
9,    13,'1 ', 0.04810, 0.15800,0.04060,   0.00,   0.00,   0.00,  0.00000,  0.00000,  0.00000,  0.00000,1,1,   0.0,   1,1.0000,   0,1.0000,   0,1.0000,   0,1.0000
10,    12,'1 ', 0.02770, 0.12620,0.03280,   0.00,   0.00,   0.00,  0.00000,  0.00000,  0.00000,  0.00000,1,1,   0.0,   1,1.0000,   0,1.0000,   0,1.0000,   0,1.0000
11,    13,'1 ', 0.02230, 0.07320,0.01880,   0.00,   0.00,   0.00,  0.00000,  0.00000,  0.00000,  0.00000,1,1,   0.0,   1,1.0000,   0,1.0000,   0,1.0000,   0,1.0000
12,    13,'1 ', 0.01780, 0.05800,0.06040,   0.00,   0.00,   0.00,  0.00000,  0.00000,  0.00000,  0.00000,1,1,   0.0,   1,1.0000,   0,1.0000,   0,1.0000,   0,1.0000
12,    16,'1 ', 0.01800, 0.08130,0.02160,   0.00,   0.00,   0.00,  0.00000,  0.00000,  0.00000,  0.00000,1,1,   0.0,   1,1.0000,   0,1.0000,   0,1.0000,   0,1.0000
12,    17,'1 ', 0.03970, 0.17900,0.04760,   0.00,   0.00,   0.00,  0.00000,  0.00000,  0.00000,  0.00000,1,1,   0.0,   1,1.0000,   0,1.0000,   0,1.0000,   0,1.0000
13,    14,'1 ', 0.01320, 0.04340,0.01100,   0.00,   0.00,   0.00,  0.00000,  0.00000,  0.00000,  0.00000,1,1,   0.0,   1,1.0000,   0,1.0000,   0,1.0000,   0,1.0000
13,    15,'1 ', 0.02690, 0.08690,0.02300,   0.00,   0.00,   0.00,  0.00000,  0.00000,  0.00000,  0.00000,1,1,   0.0,   1,1.0000,   0,1.0000,   0,1.0000,   0,1.0000
14,    15,'1 ', 0.01710, 0.05470,0.01480,   0.00,   0.00,   0.00,  0.00000,  0.00000,  0.00000,  0.00000,1,1,   0.0,   1,1.0000,   0,1.0000,   0,1.0000,   0,1.0000
18,    19,'1 ', 0.46100, 0.68500,0.00000,   0.00,   0.00,   0.00,  0.00000,  0.00000,  0.00000,  0.00000,1,1,   0.0,   1,1.0000,   0,1.0000,   0,1.0000,   0,1.0000
19,    20,'1 ', 0.28300, 0.43400,0.00000,   0.00,   0.00,   0.00,  0.00000,  0.00000,  0.00000,  0.00000,1,1,   0.0,   1,1.0000,   0,1.0000,   0,1.0000,   0,1.0000
21,    22,'1 ', 0.07360, 0.11700,0.00000,   0.00,   0.00,   0.00,  0.00000,  0.00000,  0.00000,  0.00000,1,1,   0.0,   1,1.0000,   0,1.0000,   0,1.0000,   0,1.0000
22,    23,'1 ', 0.00990, 0.01520,0.00000,   0.00,   0.00,   0.00,  0.00000,  0.00000,  0.00000,  0.00000,1,1,   0.0,   1,1.0000,   0,1.0000,   0,1.0000,   0,1.0000
22,    38,'1 ', 0.01920, 0.02950,0.00000,   0.00,   0.00,   0.00,  0.00000,  0.00000,  0.00000,  0.00000,1,1,   0.0,   1,1.0000,   0,1.0000,   0,1.0000,   0,1.0000
23,    24,'1 ', 0.16600, 0.25600,0.00840,   0.00,   0.00,   0.00,  0.00000,  0.00000,  0.00000,  0.00000,1,1,   0.0,   1,1.0000,   0,1.0000,   0,1.0000,   0,1.0000
24,    25,'1 ', 0.00000, 1.23000,0.00000,   0.00,   0.00,   0.00,  0.00000,  0.00000,  0.00000,  0.00000,1,1,   0.0,   1,1.0000,   0,1.0000,   0,1.0000,   0,1.0000
24,    25,'2 ', 0.00000, 1.18200,0.00000,   0.00,   0.00,   0.00,  0.00000,  0.00000,  0.00000,  0.00000,1,1,   0.0,   1,1.0000,   0,1.0000,   0,1.0000,   0,1.0000
25,    30,'1 ', 0.13500, 0.20200,0.00000,   0.00,   0.00,   0.00,  0.00000,  0.00000,  0.00000,  0.00000,1,1,   0.0,   1,1.0000,   0,1.0000,   0,1.0000,   0,1.0000
26,    27,'1 ', 0.16500, 0.25400,0.00000,   0.00,   0.00,   0.00,  0.00000,  0.00000,  0.00000,  0.00000,1,1,   0.0,   1,1.0000,   0,1.0000,   0,1.0000,   0,1.0000
27,    28,'1 ', 0.06180, 0.09540,0.00000,   0.00,   0.00,   0.00,  0.00000,  0.00000,  0.00000,  0.00000,1,1,   0.0,   1,1.0000,   0,1.0000,   0,1.0000,   0,1.0000
28,    29,'1 ', 0.04180, 0.05870,0.00000,   0.00,   0.00,   0.00,  0.00000,  0.00000,  0.00000,  0.00000,1,1,   0.0,   1,1.0000,   0,1.0000,   0,1.0000,   0,1.0000
29,    52,'1 ', 0.14420, 0.18700,0.00000,   0.00,   0.00,   0.00,  0.00000,  0.00000,  0.00000,  0.00000,1,1,   0.0,   1,1.0000,   0,1.0000,   0,1.0000,   0,1.0000
30,    31,'1 ', 0.32600, 0.49700,0.00000,   0.00,   0.00,   0.00,  0.00000,  0.00000,  0.00000,  0.00000,1,1,   0.0,   1,1.0000,   0,1.0000,   0,1.0000,   0,1.0000
31,    32,'1 ', 0.50700, 0.75500,0.00000,   0.00,   0.00,   0.00,  0.00000,  0.00000,  0.00000,  0.00000,1,1,   0.0,   1,1.0000,   0,1.0000,   0,1.0000,   0,1.0000
32,    33,'1 ', 0.03920, 0.03600,0.00000,   0.00,   0.00,   0.00,  0.00000,  0.00000,  0.00000,  0.00000,1,1,   0.0,   1,1.0000,   0,1.0000,   0,1.0000,   0,1.0000
34,    35,'1 ', 0.05200, 0.07800,0.00320,   0.00,   0.00,   0.00,  0.00000,  0.00000,  0.00000,  0.00000,1,1,   0.0,   1,1.0000,   0,1.0000,   0,1.0000,   0,1.0000
35,    36,'1 ', 0.04300, 0.05370,0.00160,   0.00,   0.00,   0.00,  0.00000,  0.00000,  0.00000,  0.00000,1,1,   0.0,   1,1.0000,   0,1.0000,   0,1.0000,   0,1.0000
36,    37,'1 ', 0.02900, 0.03660,0.00000,   0.00,   0.00,   0.00,  0.00000,  0.00000,  0.00000,  0.00000,1,1,   0.0,   1,1.0000,   0,1.0000,   0,1.0000,   0,1.0000
36,    40,'1 ', 0.03000, 0.04660,0.00000,   0.00,   0.00,   0.00,  0.00000,  0.00000,  0.00000,  0.00000,1,1,   0.0,   1,1.0000,   0,1.0000,   0,1.0000,   0,1.0000
37,    38,'1 ', 0.06510, 0.10090,0.00200,   0.00,   0.00,   0.00,  0.00000,  0.00000,  0.00000,  0.00000,1,1,   0.0,   1,1.0000,   0,1.0000,   0,1.0000,   0,1.0000
37,    39,'1 ', 0.02390, 0.03790,0.00000,   0.00,   0.00,   0.00,  0.00000,  0.00000,  0.00000,  0.00000,1,1,   0.0,   1,1.0000,   0,1.0000,   0,1.0000,   0,1.0000
38,    44,'1 ', 0.02890, 0.05850,0.00200,   0.00,   0.00,   0.00,  0.00000,  0.00000,  0.00000,  0.00000,1,1,   0.0,   1,1.0000,   0,1.0000,   0,1.0000,   0,1.0000
38,    48,'1 ', 0.03120, 0.04820,0.00000,   0.00,   0.00,   0.00,  0.00000,  0.00000,  0.00000,  0.00000,1,1,   0.0,   1,1.0000,   0,1.0000,   0,1.0000,   0,1.0000
38,    49,'1 ', 0.11500, 0.17700,0.00300,   0.00,   0.00,   0.00,  0.00000,  0.00000,  0.00000,  0.00000,1,1,   0.0,   1,1.0000,   0,1.0000,   0,1.0000,   0,1.0000
41,    42,'1 ', 0.20700, 0.35200,0.00000,   0.00,   0.00,   0.00,  0.00000,  0.00000,  0.00000,  0.00000,1,1,   0.0,   1,1.0000,   0,1.0000,   0,1.0000,   0,1.0000
41,    43,'1 ', 0.00000, 0.41200,0.00000,   0.00,   0.00,   0.00,  0.00000,  0.00000,  0.00000,  0.00000,1,1,   0.0,   1,1.0000,   0,1.0000,   0,1.0000,   0,1.0000
56,    41,'1 ', 0.55300, 0.54900,0.00000,   0.00,   0.00,   0.00,  0.00000,  0.00000,  0.00000,  0.00000,1,1,   0.0,   1,1.0000,   0,1.0000,   0,1.0000,   0,1.0000
56,    42,'1 ', 0.21250, 0.35400,0.00000,   0.00,   0.00,   0.00,  0.00000,  0.00000,  0.00000,  0.00000,1,1,   0.0,   1,1.0000,   0,1.0000,   0,1.0000,   0,1.0000
44,    45,'1 ', 0.06240, 0.12420,0.00400,   0.00,   0.00,   0.00,  0.00000,  0.00000,  0.00000,  0.00000,1,1,   0.0,   1,1.0000,   0,1.0000,   0,1.0000,   0,1.0000
46,    47,'1 ', 0.02300, 0.06800,0.00320,   0.00,   0.00,   0.00,  0.00000,  0.00000,  0.00000,  0.00000,1,1,   0.0,   1,1.0000,   0,1.0000,   0,1.0000,   0,1.0000
47,    48,'1 ', 0.01820, 0.02330,0.00000,   0.00,   0.00,   0.00,  0.00000,  0.00000,  0.00000,  0.00000,1,1,   0.0,   1,1.0000,   0,1.0000,   0,1.0000,   0,1.0000
48,    49,'1 ', 0.08340, 0.12900,0.00480,   0.00,   0.00,   0.00,  0.00000,  0.00000,  0.00000,  0.00000,1,1,   0.0,   1,1.0000,   0,1.0000,   0,1.0000,   0,1.0000
49,    50,'1 ', 0.08010, 0.12800,0.00000,   0.00,   0.00,   0.00,  0.00000,  0.00000,  0.00000,  0.00000,1,1,   0.0,   1,1.0000,   0,1.0000,   0,1.0000,   0,1.0000
50,    51,'1 ', 0.13860, 0.22000,0.00000,   0.00,   0.00,   0.00,  0.00000,  0.00000,  0.00000,  0.00000,1,1,   0.0,   1,1.0000,   0,1.0000,   0,1.0000,   0,1.0000
52,    53,'1 ', 0.07620, 0.09840,0.00000,   0.00,   0.00,   0.00,  0.00000,  0.00000,  0.00000,  0.00000,1,1,   0.0,   1,1.0000,   0,1.0000,   0,1.0000,   0,1.0000
53,    54,'1 ', 0.18780, 0.23200,0.00000,   0.00,   0.00,   0.00,  0.00000,  0.00000,  0.00000,  0.00000,1,1,   0.0,   1,1.0000,   0,1.0000,   0,1.0000,   0,1.0000
54,    55,'1 ', 0.17320, 0.22650,0.00000,   0.00,   0.00,   0.00,  0.00000,  0.00000,  0.00000,  0.00000,1,1,   0.0,   1,1.0000,   0,1.0000,   0,1.0000,   0,1.0000
57,    56,'1 ', 0.17400, 0.26000,0.00000,   0.00,   0.00,   0.00,  0.00000,  0.00000,  0.00000,  0.00000,1,1,   0.0,   1,1.0000,   0,1.0000,   0,1.0000,   0,1.0000
0 / END OF BRANCH DATA, BEGIN TRANSFORMER DATA
    4,   18,    0,'1 ',1,1,1,  0.00000,  0.00000,2,'        ',1,   1,1.0000,   0,1.0000,   0,1.0000,   0,1.0000
 0.00000, 0.43000, 100.00
0.97800,  0.000,   0.000,   0.00,   0.00,   0.00,0,     0, 1.50000, 0.51000, 1.50000, 0.51000,159, 0, 0.00000, 0.00000
1.00000,  0.000
    4,   18,    0,'2 ',1,1,1,  0.00000,  0.00000,2,'        ',1,   1,1.0000,   0,1.0000,   0,1.0000,   0,1.0000
 0.00000, 0.55500, 100.00
0.97000,  0.000,   0.000,   0.00,   0.00,   0.00,0,     0, 1.50000, 0.51000, 1.50000, 0.51000,159, 0, 0.00000, 0.00000
1.00000,  0.000
    7,   29,    0,'1 ',1,1,1,  0.00000,  0.00000,2,'        ',1,   1,1.0000,   0,1.0000,   0,1.0000,   0,1.0000
 0.00000, 0.06480, 100.00
0.96700,  0.000,   0.000,   0.00,   0.00,   0.00,0,     0, 1.50000, 0.51000, 1.50000, 0.51000,159, 0, 0.00000, 0.00000
1.00000,  0.000
    9,   55,    0,'1 ',1,1,1,  0.00000,  0.00000,2,'        ',1,   1,1.0000,   0,1.0000,   0,1.0000,   0,1.0000
 0.00000, 0.12050, 100.00
0.94000,  0.000,   0.000,   0.00,   0.00,   0.00,0,     0, 1.50000, 0.51000, 1.50000, 0.51000,159, 0, 0.00000, 0.00000
1.00000,  0.000
   10,   51,    0,'1 ',1,1,1,  0.00000,  0.00000,2,'        ',1,   1,1.0000,   0,1.0000,   0,1.0000,   0,1.0000
 0.00000, 0.07120, 100.00
0.93000,  0.000,   0.000,   0.00,   0.00,   0.00,0,     0, 1.50000, 0.51000, 1.50000, 0.51000,159, 0, 0.00000, 0.00000
1.00000,  0.000
   11,   41,    0,'1 ',1,1,1,  0.00000,  0.00000,2,'        ',1,   1,1.0000,   0,1.0000,   0,1.0000,   0,1.0000
 0.00000, 0.74900, 100.00
0.95500,  0.000,   0.000,   0.00,   0.00,   0.00,0,     0, 1.50000, 0.51000, 1.50000, 0.51000,159, 0, 0.00000, 0.00000
1.00000,  0.000
   11,   43,    0,'1 ',1,1,1,  0.00000,  0.00000,2,'        ',1,   1,1.0000,   0,1.0000,   0,1.0000,   0,1.0000
 0.00000, 0.15300, 100.00
0.95800,  0.000,   0.000,   0.00,   0.00,   0.00,0,     0, 1.50000, 0.51000, 1.50000, 0.51000,159, 0, 0.00000, 0.00000
1.00000,  0.000
   13,   49,    0,'1 ',1,1,1,  0.00000,  0.00000,2,'        ',1,   1,1.0000,   0,1.0000,   0,1.0000,   0,1.0000
 0.00000, 0.19100, 100.00
0.89500,  0.000,   0.000,   0.00,   0.00,   0.00,0,     0, 1.50000, 0.51000, 1.50000, 0.51000,159, 0, 0.00000, 0.00000
1.00000,  0.000
   14,   46,    0,'1 ',1,1,1,  0.00000,  0.00000,2,'        ',1,   1,1.0000,   0,1.0000,   0,1.0000,   0,1.0000
 0.00000, 0.07350, 100.00
0.90000,  0.000,   0.000,   0.00,   0.00,   0.00,0,     0, 1.50000, 0.51000, 1.50000, 0.51000,159, 0, 0.00000, 0.00000
1.00000,  0.000
   15,   45,    0,'1 ',1,1,1,  0.00000,  0.00000,2,'        ',1,   1,1.0000,   0,1.0000,   0,1.0000,   0,1.0000
 0.00000, 0.10420, 100.00
0.95500,  0.000,   0.000,   0.00,   0.00,   0.00,0,     0, 1.50000, 0.51000, 1.50000, 0.51000,159, 0, 0.00000, 0.00000
1.00000,  0.000
   21,   20,    0,'1 ',1,1,1,  0.00000,  0.00000,2,'        ',1,   1,1.0000,   0,1.0000,   0,1.0000,   0,1.0000
 0.00000, 0.77670, 100.00
1.04300,  0.000,   0.000,   0.00,   0.00,   0.00,0,     0, 1.50000, 0.51000, 1.50000, 0.51000,159, 0, 0.00000, 0.00000
1.00000,  0.000
   24,   26,    0,'1 ',1,1,1,  0.00000,  0.00000,2,'        ',1,   1,1.0000,   0,1.0000,   0,1.0000,   0,1.0000
 0.00000, 0.04730, 100.00
1.04300,  0.000,   0.000,   0.00,   0.00,   0.00,0,     0, 1.50000, 0.51000, 1.50000, 0.51000,159, 0, 0.00000, 0.00000
1.00000,  0.000
   34,   32,    0,'1 ',1,1,1,  0.00000,  0.00000,2,'        ',1,   1,1.0000,   0,1.0000,   0,1.0000,   0,1.0000
 0.00000, 0.95300, 100.00
0.97500,  0.000,   0.000,   0.00,   0.00,   0.00,0,     0, 1.50000, 0.51000, 1.50000, 0.51000,159, 0, 0.00000, 0.00000
1.00000,  0.000
   39,   57,    0,'1 ',1,1,1,  0.00000,  0.00000,2,'        ',1,   1,1.0000,   0,1.0000,   0,1.0000,   0,1.0000
 0.00000, 1.35500, 100.00
0.98000,  0.000,   0.000,   0.00,   0.00,   0.00,0,     0, 1.50000, 0.51000, 1.50000, 0.51000,159, 0, 0.00000, 0.00000
1.00000,  0.000
   40,   56,    0,'1 ',1,1,1,  0.00000,  0.00000,2,'        ',1,   1,1.0000,   0,1.0000,   0,1.0000,   0,1.0000
 0.00000, 1.19500, 100.00
0.95800,  0.000,   0.000,   0.00,   0.00,   0.00,0,     0, 1.50000, 0.51000, 1.50000, 0.51000,159, 0, 0.00000, 0.00000
1.00000,  0.000
0 / END OF TRANSFORMER DATA, BEGIN AREA DATA
   1,    0,     0.000,     1.000,'1           '
0 / END OF AREA DATA, BEGIN TWO-TERMINAL DC DATA
0 / END OF TWO-TERMINAL DC DATA, BEGIN VSC DC LINE DATA
"Vsc-Project1  ",  7, 9, 11, 1,200
 1,  1, "Pac_control",   1,  "Qac_control",   60.00,   0.0000,   0.00000,   0.00000,   60.000,  100.000, 0.020,  0.0020,   200.00,    200.00,  100.00,  200.00,  220.00,  200.00,  1.100,  0.0010,  0.050,  0.500,  5.000,  0.000,  0.0010,   70.00,   60.00,  150.00,  -150.00,  150.00,  -150.00,  220.00,  180.00,  0, 100.00
 2,  1, "Vdc_control",   2,  "Qac_control",  0.0000,   210.00,   0.00000,   0.00000,   30.000,  50.000,  0.008,  0.0003,   200.00,    200.00,  100.00,  200.00,  220.00,  200.00,  1.100,  0.0010,  0.050,  0.500,  5.000,  0.000,  0.0010,  -50.00,   30.00,  150.00,  -150.00,  150.00,  -150.00,  220.00,  180.00,  0, 100.00
10,  1, "Pac_control",   3,  "Vac_control",  -45.00,   0.0000,   0.00000,   0.00000,   1.0100,  100.000, 0.015,  0.0008,   200.00,    200.00,  100.00,  200.00,  220.00,  200.00,  1.100,  0.0010,  0.050,  0.500,  5.000,  0.000,  0.0010,  -45.00,  -40.00,  150.00,  -150.00,  150.00,  -150.00,  220.00,  180.00,  0, 100.00
12,  1, "VPdc_control",  4,  "Qac_control",   50.00,   201.00,   0.00000,   24.0000,   30.000,  50.000,  0.012,  0.0018,   200.00,    200.00,  100.00,  200.00,  220.00,  200.00,  1.100,  0.0010,  0.050,  0.500,  5.000,  0.000,  0.0010,  -50.00,   30.00,  150.00,  -150.00,  150.00,  -150.00,  220.00,  180.00,  0, 100.00
15,  1, "VPdc_control",  5,  "Vac_control",  55.000,   199.00,   0.00000,   120.000,   1.0200,  100.000, 0.010,  0.0005,   200.00,    200.00,  100.00,  200.00,  220.00,  200.00,  1.100,  0.0010,  0.050,  0.500,  5.000,  0.000,  0.0010,  -45.00,  -40.00,  150.00,  -150.00,  150.00,  -150.00,  220.00,  180.00,  0, 100.00
16,  1, "VPdc_control",  0,  "Qac_control",  -40.00,   202.00,   0.00000,   26.0000,   -48.00,  60.000,  0.010,  0.0010,   200.00,    200.00,  100.00,  200.00,  220.00,  200.00,  1.100,  0.0010,  0.050,  0.500,  5.000,  0.000,  0.0010,   80.00,  -48.00,  150.00,  -150.00,  150.00,  -150.00,  220.00,  180.00,  0, 100.00
17,  1, "VPdc_control",  0,  "Vac_control",  -65.00,   198.00,   0.00000,   180.000,   0.9900,  50.000,  0.012,  0.0012,   200.00,    200.00,  100.00,  200.00,  220.00,  200.00,  1.100,  0.0010,  0.050,  0.500,  5.000,  0.000,  0.0010,  -55.00,   50.00,  150.00,  -150.00,  150.00,  -150.00,  220.00,  180.00,  0, 100.00
1,    1,   200,   4,   4,'DC1         ',   0.0000,   4,   0,   0,
2,    2,   210,   2,   2,'DC2         ',   0.0000,   2,   0,   0,
3,   10,   200,   4,   4,'DC3         ',   0.0000,   4,   0,   0,
4,   12,   200,   2,   2,'DC4         ',   0.0000,   2,   0,   0,
5,   15,   200,   4,   4,'DC5         ',   0.0000,   4,   0,   0,
6,   16,   200,   2,   2,'DC6         ',   0.0000,   2,   0,   0,
7,   17,   200,   2,   2,'DC7         ',   0.0000,   2,   0,   0,
8,   0,    200,   2,   2,'DC8         ',   0.0000,   2,  30,   10,
9,   0,    200,   2,   2,'DC9         ',   0.0000,   2,  20,   12,
1, 6,'1',1,   4.0000,     0.00
1, 7,'1',1,   2.0000,     0.00
2, 3,'1',1,   6.0000,     0.00
2, 4,'1',1,   2.0000,     0.00
2, 8,'1',1,   5.0000,     0.00
3, 7,'1',1,   4.0000,     0.00
4, 7,'1',1,   6.0000,     0.00
4, 8,'1',1,   3.0000,     0.00
5, 6,'1',1,   6.0000,     0.00
5, 9,'1',1,   5.0000,     0.00
6, 9,'1',1,   3.0000,     0.00
0 / END OF VSC DC LINE DATA, BEGIN IMPEDANCE CORRECTION DATA
0 / END OF IMPEDANCE CORRECTION DATA, BEGIN MULTI-TERMINAL DC DATA
0 / END OF MULTI-TERMINAL DC DATA, BEGIN MULTI-SECTION LINE DATA
0 / END OF MULTI-SECTION LINE DATA, BEGIN ZONE DATA
   1,'IEEE 57 '
0 / END OF ZONE DATA, BEGIN INTER-AREA TRANSFER DATA
0 / END OF INTER-AREA TRANSFER DATA, BEGIN OWNER DATA
    1,'1'
0 / END OF OWNER DATA, BEGIN FACTS CONTROL DEVICE DATA
0 / END OF FACTS CONTROL DEVICE DATA, BEGIN SWITCHED SHUNT DATA
0 / END OF SWITCHED SHUNT DATA, BEGIN GNE DEVICE DATA
0 / END OF GNE DATA, BEGIN INDUCTION MACHINE DATA
0 / END OF INDUCTION MACHINE DATA
Q
